TNSAgent/tns/network/output_current.csv
# output_current.csv run at 2004-01-18 00:00:00 PST on 2945 links
link_name,currA_real,currA_imag,currB_real,currB_imag,currC_real,currC_imag
Switch_TUR115_swing,119.115386,-1.470268,-60.830982,-102.421816,-58.284404,103.892084
Switch_SPU125_swing,289.292227,-15.866887,-158.392937,-242.604406,-130.915267,258.375597
Switch_SPU122_swing,78.585623,35.753732,-8.330067,-85.934480,-70.256090,50.183458
Switch_SPU124_swing,202.860248,-4.643043,-105.341056,-173.414353,-97.395306,177.885937
Switch_TUR117_swing,19.032661,23.284689,15.086141,-20.555685,-25.090347,-2.635047
Switch_TUR111_swing,189.455005,-53.434099,-141.002790,-137.355798,-48.452215,190.789897
Switch_TVW131_swing,10.261160,-0.006430,-5.135953,-8.883089,-5.124986,8.889408
Switch_SolarA_link,-0.000000,0.000000,0.000000,0.000000,0.000000,0.000000
Switch_SolarB_link,0.000000,0.000000,0.000000,0.000000,0.000000,0.000000
Switch_SolarC_link,0.000000,0.000000,0.000000,0.000000,0.000000,0.000000
Switch_396-67859,385.049116,-4.752747,-196.640558,-331.085943,-188.408559,335.838690
Switch_390-66586,121.348799,-1.497835,-61.971563,-104.342225,-59.377236,105.840060
Switch_396-83540,385.049116,-4.752747,-196.640558,-331.085943,-188.408559,335.838690
Switch_P1628,0.000000,-0.000000,0.000000,-0.000000,0.000000,-0.000000
Switch_396-153620,121.348799,-1.497835,-61.971563,-104.342225,-59.377236,105.840060
Switch_396-67860,917.946590,-50.346859,-502.593029,-769.802526,-415.404257,819.845734
Switch_390-59546,289.292227,-15.866887,-158.392937,-242.604406,-130.915267,258.375597
Switch_390-59548,0.000000,0.000000,0.000000,0.000000,0.000000,0.000000
Switch_396-151076,19.746385,24.157865,15.651871,-21.326523,-26.188050,-2.750331
Switch_396-66899,-0.000000,0.000000,-0.000000,-0.000000,-0.000000,-0.000000
Switch_396-150741,190.639099,-53.768062,-141.884057,-138.214271,-48.755041,191.982334
Switch_CASP13,0.000000,0.000000,0.000000,0.000000,0.000000,0.000000
Switch_CASPA_link,385.049116,-4.752747,-196.640558,-331.085943,-188.408559,335.838690
Switch_CASPB_link,917.946590,-50.346859,-502.593029,-769.802526,-415.404257,819.845734
Switch_SPU124A_link,202.816167,-4.581092,0.000000,0.000000,0.000000,0.000000
Switch_SPU124B_link,0.000000,0.000000,-105.385136,-173.352402,0.000000,0.000000
Switch_SPU124C_link,0.000000,0.000000,0.000000,0.000000,-97.439386,177.947888
Switch_SPU122_link,78.455034,-1.906692,-40.879653,-66.991179,-37.575917,68.900568
ResearchParkA_link,10.627621,-0.032025,0.000000,0.000000,0.000000,0.000000
ResearchParkB_link,0.000000,0.000000,-5.321913,-9.186353,0.000000,0.000000
ResearchParkC_link,0.000000,0.000000,0.000000,0.000000,-5.335157,9.265735
TV131_EChillersA_link,10.453557,-0.006550,0.000000,0.000000,0.000000,0.000000
TV131_EChillersB_link,0.000000,0.000000,-5.232252,-9.049647,0.000000,0.000000
TV131_EChillersC_link,0.000000,0.000000,0.000000,0.000000,-5.221079,9.056085
TV131_ColdStorageA_link,0.000000,-0.000000,0.000000,0.000000,0.000000,0.000000
TV131_ColdStorageB_link,0.000000,0.000000,0.000000,0.000000,0.000000,0.000000
TV131_ColdStorageC_link,0.000000,0.000000,0.000000,0.000000,0.000000,0.000000
ClarkHallChillersA_link,0.000000,-0.000000,0.000000,0.000000,0.000000,0.000000
ClarkHallChillersB_link,0.000000,0.000000,0.000000,0.000000,0.000000,0.000000
ClarkHallChillersC_link,0.000000,0.000000,0.000000,0.000000,0.000000,0.000000
recloser_Breaker Recloser_TUR115_1,121.348799,-1.497835,-61.971563,-104.342225,-59.377236,105.840060
recloser_Breaker Recloser_TUR115_2,121.348799,-1.497835,-61.971563,-104.342225,-59.377236,105.840060
recloser_Breaker Recloser_TUR115_3,0.000000,0.000000,0.000000,-0.000000,0.000000,0.000000
recloser_392-93179,119.115386,-1.470268,-60.830982,-102.421816,-58.284404,103.892084
recloser_Breaker Recloser_SPU125_1,289.292227,-15.866887,-158.392937,-242.604406,-130.915267,258.375597
recloser_Breaker Recloser_SPU125_2,0.000000,0.000000,0.000000,0.000000,0.000000,0.000000
recloser_Breaker Recloser_SPU125_3,-0.000000,-0.000000,0.000000,0.000000,-0.000000,0.000000
recloser_Breaker Recloser_SPU125_4,0.000000,0.000000,0.000000,0.000000,0.000000,0.000000
recloser_392-31703,289.292227,-15.866887,-158.392937,-242.604406,-130.915267,258.375597
recloser_392-15406,78.585623,35.753732,-8.330067,-85.934480,-70.256090,50.183458
recloser_392-30742,202.860248,-4.643043,-105.341056,-173.414353,-97.395306,177.885937
recloser_Breaker Recloser_TUR117_1,19.720409,12.051899,5.165753,-15.258290,-15.762351,3.258248
recloser_Breaker Recloser_TUR117_2,10.627621,-0.032025,-5.321913,-9.186353,-5.335157,9.265735
recloser_392-93181,19.032661,23.284689,15.086141,-20.555685,-25.090347,-2.635047
recloser_Breaker Recloser_TUR117_3,-0.000000,-0.000000,-0.000000,0.000000,0.000000,0.000000
recloser_Breaker Recloser,190.639099,-53.768062,-141.884057,-138.214271,-48.755041,191.982334
recloser_392-93176,189.455005,-53.434099,-141.002790,-137.355798,-48.452215,190.789897
recloser_392-58264,10.261160,-0.006430,-5.135953,-8.883089,-5.124986,8.889408
FUSEs_402-1375944,0.000000,0.000000,0.000000,0.000000,0.000000,0.000000
FUSEs_402-1375942,0.000000,-0.000000,0.000000,0.000000,-0.000000,0.000000
FUSEs_402-1375943,0.000000,-0.000000,-0.000000,-0.000000,-0.000000,0.000000
FUSEs_402-619382,0.000000,0.000000,-502.593029,-769.802526,0.000000,0.000000
FUSEs_402-458138,78.455034,-1.906692,-40.879653,-66.991179,-37.575917,68.900568
FUSEs_402-1056198,202.860248,-4.643043,-105.341056,-173.414353,-97.395306,177.885937
FUSEs_402-1492513,0.000000,0.000000,0.000000,0.000000,0.000000,0.000000
FUSEs_402-1397702,0.000000,-0.000000,0.000000,0.000000,0.000000,0.000000
FUSEs_402-1262950,9.060882,-0.022851,0.000000,0.000000,0.000000,0.000000
FUSEs_402-1390342,10.627621,-0.032025,-5.321913,-9.186353,-5.335157,9.265735
FUSEs_402-158826,0.000000,-0.000000,0.000000,0.000000,0.000000,0.000000
FUSEs_402-158825,-0.000000,-0.000000,0.000000,0.000000,0.000000,0.000000
FUSEs_402-1397704,0.000000,-0.000000,0.000000,-0.000000,0.000000,0.000000
FUSEs_402-158808,-0.000000,-0.000000,0.000000,0.000000,-0.000000,-0.000000
FUSEs_402-158806,0.000000,0.000000,-0.000000,-0.000000,0.000000,0.000000
FUSEs_402-700342,0.000000,-0.000000,-0.000000,0.000000,0.000000,0.000000
FUSEs_402-1339159,-0.000000,-0.000000,-0.000000,0.000000,0.000000,0.000000
FUSEs_402-1397705,0.000000,0.000000,0.000000,0.000000,-0.000000,0.000000
FUSEs_402-1397706,0.000000,-0.000000,0.000000,0.000000,0.000000,-0.000000
FUSEs_402-158821,0.000000,0.000000,0.000000,-0.000000,0.000000,0.000000
FUSEs_402-158810,0.000000,-0.000000,0.000000,-0.000000,-0.000000,-0.000000
FUSEs_402-158814,-0.000000,0.000000,-0.000000,0.000000,0.000000,-0.000000
FUSEs_402-167773,-0.000000,0.000000,-0.000000,-0.000000,-0.000000,-0.000000
FUSEs_402-462222,-0.000000,0.000000,0.000000,0.000000,-0.000000,-0.000000
FUSEs_402-463500,9.060882,-0.022851,0.000000,-0.000000,-0.000000,0.000000
FUSEs_402-1369238,10.453557,-0.006550,-5.232252,-9.049647,-5.221079,9.056085
Breaker_CASP13,0.000000,0.000000,0.000000,0.000000,0.000000,0.000000
Breaker_EB13,73.654962,-0.938563,-37.641143,-63.318222,-36.014348,64.259249
Breaker_EB11,-433.987308,-0.930383,216.192921,376.311724,217.797703,-375.395325
Breaker_EA1,-149.363865,1.895180,76.330403,128.404525,73.039706,-130.310052
Breaker_EA7,255.356111,-7.471328,-134.160588,-217.408004,-121.205937,224.897756
Breaker_CASP24,467.205362,-27.742015,-257.638247,-390.746166,-209.594283,418.332237
389-1183379-0,0.000000,0.000000,-0.000000,0.000000,-0.000000,-0.000000
389-1183388-0,-0.000000,-0.000000,-0.000000,0.000000,0.000000,0.000000
389-1183414-0,0.000000,0.000000,0.000000,-0.000000,0.000000,0.000000
389-1183416-0,0.000000,0.000000,0.000000,0.000000,0.000000,0.000000
389-1183416-1,0.000000,0.000000,0.000000,0.000000,0.000000,0.000000
389-1190523-0,0.000000,0.000000,0.000000,-0.000000,0.000000,0.000000
389-1194536-0,121.348799,-1.497835,-61.971563,-104.342225,-59.377236,105.840060
389-1194537-0,121.348799,-1.497835,-61.971563,-104.342225,-59.377236,105.840060
389-1194538-0,121.348799,-1.497835,-61.971563,-104.342225,-59.377236,105.840060
389-1459976-0,0.000000,-0.000000,0.000000,-0.000000,0.000000,0.000000
389-1459979-0,385.049116,-4.752747,-196.640558,-331.085943,-188.408559,335.838690
389-1473435-0,121.348799,-1.497835,-61.971563,-104.342225,-59.377236,105.840060
389-1648774-0,0.000000,0.000000,0.000000,0.000000,0.000000,0.000000
389-1901569-0,121.348799,-1.497835,-61.971563,-104.342225,-59.377236,105.840060
389-1901570-0,121.348799,-1.497835,-61.971563,-104.342225,-59.377236,105.840060
389-1901582-0,121.348799,-1.497835,-61.971563,-104.342225,-59.377236,105.840060
389-1901582-1,385.049116,-4.752747,-196.640558,-331.085943,-188.408559,335.838690
389-2176151-0,385.049116,-4.752747,-196.640558,-331.085943,-188.408559,335.838690
389-2176152-0,385.049116,-4.752747,-196.640558,-331.085943,-188.408559,335.838690
389-3000721-0,0.000000,-0.000000,0.000000,-0.000000,0.000000,0.000000
389-3000739-0,-0.000000,-0.000000,0.000000,0.000000,0.000000,-0.000000
389-3000741-0,-0.000000,0.000000,-0.000000,0.000000,0.000000,-0.000000
389-3000742-0,0.000000,0.000000,-0.000000,0.000000,0.000000,-0.000000
389-3000743-0,0.000000,-0.000000,0.000000,-0.000000,0.000000,0.000000
389-3025314-0,-0.000000,0.000000,-0.000000,0.000000,-0.000000,-0.000000
389-3028233-0,0.000000,0.000000,-0.000000,-0.000000,-0.000000,-0.000000
389-3049331-0,121.348799,-1.497835,-61.971563,-104.342225,-59.377236,105.840060
389-3050618-0,121.348799,-1.497835,-61.971563,-104.342225,-59.377236,105.840060
389-3050618-1,0.000000,0.000000,-0.000000,-0.000000,-0.000000,-0.000000
389-3063713-0,121.348799,-1.497835,-61.971563,-104.342225,-59.377236,105.840060
389-3063714-0,121.348799,-1.497835,-61.971563,-104.342225,-59.377236,105.840060
389-3063714-1,121.348799,-1.497835,-61.971563,-104.342225,-59.377236,105.840060
389-3064097-0,121.348799,-1.497835,-61.971563,-104.342225,-59.377236,105.840060
389-3064097-1,121.348799,-1.497835,-61.971563,-104.342225,-59.377236,105.840060
389-3065377-0,121.348799,-1.497835,-61.971563,-104.342225,-59.377236,105.840060
389-3104116-0,-0.000000,0.000000,0.000000,0.000000,-0.000000,0.000000
389-3104180-0,-0.000000,-0.000000,0.000000,-0.000000,0.000000,0.000000
389-3109251-0,121.348799,-1.497835,-61.971563,-104.342225,-59.377236,105.840060
389-3126436-0,121.348799,-1.497835,-61.971563,-104.342225,-59.377236,105.840060
389-3135075-0,121.348799,-1.497835,-61.971563,-104.342225,-59.377236,105.840060
389-547413-0,121.348799,-1.497835,-61.971563,-104.342225,-59.377236,105.840060
389-547415-0,121.348799,-1.497835,-61.971563,-104.342225,-59.377236,105.840060
389-547730-0,121.348799,-1.497835,-61.971563,-104.342225,-59.377236,105.840060
389-781331-0,-0.000000,0.000000,0.000000,0.000000,0.000000,0.000000
389-1253829-0,289.292227,-15.866887,-158.392937,-242.604406,-130.915267,258.375597
389-1253832-0,289.292227,-15.866887,-158.392937,-242.604406,-130.915267,258.375597
389-1253833-0,289.292227,-15.866887,-158.392937,-242.604406,-130.915267,258.375597
389-1253836-0,289.292227,-15.866887,-158.392937,-242.604406,-130.915267,258.375597
389-1253838-0,289.292227,-15.866887,-158.392937,-242.604406,-130.915267,258.375597
389-1254098-0,289.292227,-15.866887,-158.392937,-242.604406,-130.915267,258.375597
389-1254100-0,289.292227,-15.866887,-158.392937,-242.604406,-130.915267,258.375597
389-1254104-0,289.292227,-15.866887,-158.392937,-242.604406,-130.915267,258.375597
389-1254106-0,289.292227,-15.866887,-158.392937,-242.604406,-130.915267,258.375597
389-1254108-0,289.292227,-15.866887,-158.392937,-242.604406,-130.915267,258.375597
389-1254110-0,289.292227,-15.866887,-158.392937,-242.604406,-130.915267,258.375597
389-1254111-0,289.292227,-15.866887,-158.392937,-242.604406,-130.915267,258.375597
389-1254404-0,289.292227,-15.866887,-158.392937,-242.604406,-130.915267,258.375597
389-1254407-0,289.292227,-15.866887,-158.392937,-242.604406,-130.915267,258.375597
389-1254409-0,0.000000,0.000000,0.000000,-0.000000,0.000000,-0.000000
389-1254410-0,0.000000,0.000000,-0.000000,-0.000000,-0.000000,-0.000000
389-1254416-0,289.292227,-15.866887,-158.392937,-242.604406,-130.915267,258.375597
389-1254775-0,289.292227,-15.866887,-158.392937,-242.604406,-130.915267,258.375597
389-1254776-0,289.292227,-15.866887,-158.392937,-242.604406,-130.915267,258.375597
389-1256957-0,289.292227,-15.866887,-158.392937,-242.604406,-130.915267,258.375597
389-1264313-0,917.946590,-50.346859,-502.593029,-769.802526,-415.404257,819.845734
389-1459444-0,289.292227,-15.866887,-158.392937,-242.604406,-130.915267,258.375597
389-1459977-0,-0.000000,-0.000000,0.000000,0.000000,0.000000,0.000000
389-1459981-0,917.946590,-50.346859,-502.593029,-769.802526,-415.404257,819.845734
389-1473434-0,289.292227,-15.866887,-158.392937,-242.604406,-130.915267,258.375597
389-1901580-0,289.292227,-15.866887,-158.392937,-242.604406,-130.915267,258.375597
389-1901581-0,289.292227,-15.866887,-158.392937,-242.604406,-130.915267,258.375597
389-1901581-1,917.946590,-50.346859,-502.593029,-769.802526,-415.404257,819.845734
389-3024801-0,289.292227,-15.866887,-158.392937,-242.604406,-130.915267,258.375597
389-3024906-0,289.292227,-15.866887,-158.392937,-242.604406,-130.915267,258.375597
389-3027874-0,0.000000,0.000000,0.000000,0.000000,0.000000,0.000000
389-3104113-0,-0.000000,-0.000000,-0.000000,0.000000,0.000000,-0.000000
389-3104179-0,0.000000,0.000000,0.000000,0.000000,0.000000,0.000000
389-781140-0,289.292227,-15.866887,-158.392937,-242.604406,-130.915267,258.375597
401-129004-0,0.000000,0.000000,-0.000000,0.000000,-0.000000,-0.000000
401-129005-0,-0.000000,0.000000,0.000000,0.000000,0.000000,-0.000000
389-1190526-0,78.585623,35.753732,-8.330067,-85.934480,-70.256090,50.183458
389-1190690-0,78.585623,35.753732,-8.330067,-85.934480,-70.256090,50.183458
389-1190690-1,78.585623,35.753732,-8.330067,-85.934480,-70.256090,50.183458
389-3020482-0,78.585623,35.753732,-8.330067,-85.934480,-70.256090,50.183458
389-3020482-1,78.585623,35.753732,-8.330067,-85.934480,-70.256090,50.183458
389-3020482-2,78.455034,-1.906692,-40.879653,-66.991179,-37.575917,68.900568
389-549633-0,78.585623,35.753732,-8.330067,-85.934480,-70.256090,50.183458
389-802872-0,0.000000,0.000000,0.000000,0.000000,0.000000,0.000000
TIE-391-1731909,-0.000000,-0.000000,0.000000,-0.000000,-0.000000,0.000000
TIE-391-559604,78.455034,-1.906692,-40.879653,-66.991179,-37.575917,68.900568
TIE-391-758992,0.000000,-0.000000,0.000000,-0.000000,0.000000,0.000000
UGSW-35524,-0.000000,-0.000000,-0.000000,-0.000000,-0.000000,0.000000
UGSW-35526,-0.000000,0.000000,0.000000,-0.000000,-0.000000,0.000000
UGSW-37761,0.000000,-0.000000,-0.000000,-0.000000,-0.000000,0.000000
UGSW-37763,78.455034,-1.906692,-40.879653,-66.991179,-37.575917,68.900568
389-1189749-0,202.860248,-4.643043,-105.341056,-173.414353,-97.395306,177.885937
389-1190692-0,0.000000,0.000000,-0.000000,-0.000000,-0.000000,-0.000000
389-1243304-0,0.000000,0.000000,0.000000,0.000000,0.000000,0.000000
389-2201457-0,202.860248,-4.643043,-105.341056,-173.414353,-97.395306,177.885937
389-2397319-0,202.860248,-4.643043,-105.341056,-173.414353,-97.395306,177.885937
389-2397319-1,202.860248,-4.643043,-105.341056,-173.414353,-97.395306,177.885937
389-2397319-2,202.860248,-4.643043,-105.341056,-173.414353,-97.395306,177.885937
389-2397320-0,202.860248,-4.643043,-105.341056,-173.414353,-97.395306,177.885937
389-3021153-0,202.860248,-4.643043,-105.341056,-173.414353,-97.395306,177.885937
389-3136995-0,-0.000000,-0.000000,-0.000000,-0.000000,0.000000,-0.000000
395-2147912-0,0.000000,0.000000,0.000000,0.000000,-0.000000,-0.000000
389-1196856-0,-0.000000,-0.000000,0.000000,0.000000,0.000000,0.000000
389-1197079-0,0.000000,-0.000000,0.000000,0.000000,0.000000,0.000000
389-1197079-1,-0.000000,0.000000,0.000000,0.000000,0.000000,0.000000
389-1197079-2,-0.000000,0.000000,0.000000,0.000000,0.000000,0.000000
389-1197080-0,0.000000,-0.000000,0.000000,0.000000,0.000000,0.000000
389-1197082-0,-0.000000,0.000000,-0.000000,0.000000,-0.000000,0.000000
389-1197083-0,-0.000000,0.000000,-0.000000,0.000000,-0.000000,0.000000
389-1197084-0,-0.000000,0.000000,-0.000000,0.000000,-0.000000,0.000000
389-1197085-0,-0.000000,0.000000,-0.000000,0.000000,-0.000000,0.000000
389-1197085-1,-0.000000,0.000000,-0.000000,-0.000000,-0.000000,0.000000
389-1197085-2,-0.000000,-0.000000,0.000000,0.000000,0.000000,0.000000
389-1197383-0,-0.000000,0.000000,-0.000000,0.000000,0.000000,0.000000
389-1197384-0,-0.000000,0.000000,0.000000,-0.000000,-0.000000,-0.000000
389-1197385-0,-0.000000,-0.000000,0.000000,0.000000,-0.000000,0.000000
389-1197386-0,0.000000,0.000000,0.000000,0.000000,0.000000,-0.000000
389-1197387-0,19.746385,24.157865,15.651871,-21.326523,-26.188050,-2.750331
389-1197389-0,19.746385,24.157865,15.651871,-21.326523,-26.188050,-2.750331
389-1197389-1,19.746385,24.157865,15.651871,-21.326523,-26.188050,-2.750331
389-1197391-0,0.000000,-0.000000,0.000000,0.000000,0.000000,0.000000
389-1197392-0,-0.000000,-0.000000,0.000000,0.000000,0.000000,0.000000
389-1197721-0,19.720409,12.051899,5.165753,-15.258290,-15.762351,3.258248
389-1197721-1,19.688503,-0.054877,-5.321913,-9.186353,-5.335158,9.265735
389-1197723-0,0.000000,-0.000000,0.000000,0.000000,0.000000,0.000000
389-1197724-0,9.060882,-0.022851,0.000000,0.000000,0.000000,0.000000
389-2159224-0,19.746385,24.157865,15.651871,-21.326523,-26.188050,-2.750331
389-2160505-0,-0.000000,-0.000000,0.000000,0.000000,0.000000,-0.000000
389-2160788-0,19.746385,24.157865,15.651871,-21.326523,-26.188050,-2.750331
389-2160789-0,19.746385,24.157865,15.651871,-21.326523,-26.188050,-2.750331
389-2160791-0,19.746385,24.157865,15.651871,-21.326523,-26.188050,-2.750331
389-2160791-1,19.746385,24.157865,15.651871,-21.326523,-26.188050,-2.750331
389-2863671-0,9.060882,-0.022851,0.000000,0.000000,0.000000,0.000000
389-2985217-0,19.746385,24.157865,15.651871,-21.326523,-26.188050,-2.750331
389-2985217-1,19.746385,24.157865,15.651871,-21.326523,-26.188050,-2.750331
389-2985217-2,19.746385,24.157865,15.651871,-21.326523,-26.188050,-2.750331
389-2985217-3,19.746385,24.157865,15.651871,-21.326523,-26.188050,-2.750331
389-2985217-4,19.720409,12.051899,5.165753,-15.258290,-15.762351,3.258248
389-2993393-0,19.720409,12.051899,5.165753,-15.258290,-15.762351,3.258248
389-2993393-1,19.720409,12.051899,5.165753,-15.258290,-15.762351,3.258248
389-2993393-2,19.720409,12.051899,5.165753,-15.258290,-15.762351,3.258248
389-2993393-3,19.720409,12.051899,5.165753,-15.258290,-15.762351,3.258248
389-2993393-4,19.720409,12.051899,5.165753,-15.258290,-15.762351,3.258248
389-3020418-0,10.627621,-0.032025,-5.321913,-9.186353,-5.335157,9.265735
389-3020420-0,10.627621,-0.032025,-5.321913,-9.186353,-5.335157,9.265735
389-3050617-0,19.746385,24.157865,15.651871,-21.326523,-26.188050,-2.750331
389-3050622-0,19.746385,24.157865,15.651871,-21.326523,-26.188050,-2.750331
389-3054115-0,10.627621,-0.032025,-5.321913,-9.186353,-5.335158,9.265735
389-3054115-1,10.627621,-0.032025,-5.321913,-9.186353,-5.335157,9.265735
389-3054115-2,-0.000000,0.000000,-0.000000,0.000000,-0.000000,-0.000000
389-3054115-3,0.000000,0.000000,-0.000000,-0.000000,-0.000000,-0.000000
389-3109282-0,19.746385,24.157865,15.651871,-21.326523,-26.188050,-2.750331
389-554115-0,0.000000,-0.000000,0.000000,0.000000,0.000000,0.000000
389-554117-0,-0.000000,-0.000000,0.000000,-0.000000,0.000000,0.000000
389-554121-0,-0.000000,0.000000,0.000000,0.000000,0.000000,0.000000
389-554130-0,-0.000000,-0.000000,0.000000,-0.000000,0.000000,-0.000000
389-554146-0,-0.000000,-0.000000,-0.000000,-0.000000,0.000000,0.000000
389-554149-0,-0.000000,-0.000000,0.000000,0.000000,0.000000,0.000000
389-554155-0,-0.000000,0.000000,0.000000,0.000000,0.000000,0.000000
389-554158-0,-0.000000,-0.000000,-0.000000,-0.000000,0.000000,0.000000
389-554167-0,-0.000000,-0.000000,-0.000000,-0.000000,0.000000,-0.000000
389-554168-0,0.000000,0.000000,-0.000000,-0.000000,-0.000000,-0.000000
389-554176-0,0.000000,0.000000,0.000000,-0.000000,0.000000,0.000000
389-554462-0,0.000000,0.000000,0.000000,-0.000000,0.000000,0.000000
389-554462-1,0.000000,0.000000,-0.000000,0.000000,0.000000,0.000000
389-591896-0,19.746385,24.157865,15.651871,-21.326523,-26.188050,-2.750331
389-591897-0,19.746385,24.157865,15.651871,-21.326523,-26.188050,-2.750331
389-591902-0,0.000000,0.000000,-0.000000,-0.000000,-0.000000,-0.000000
389-700690-0,-0.000000,-0.000000,0.000000,0.000000,0.000000,0.000000
389-706772-0,0.000000,-0.000000,0.000000,0.000000,0.000000,0.000000
389-706772-1,0.000000,-0.000000,0.000000,0.000000,0.000000,0.000000
394-1279436-0,0.000000,-0.000000,-0.000000,0.000000,0.000000,0.000000
394-1771383-0,0.000000,0.000000,0.000000,0.000000,0.000000,0.000000
394-2352417-0,0.000000,-0.000000,0.000000,0.000000,0.000000,-0.000000
394-2415085-0,0.000000,-0.000000,0.000000,-0.000000,0.000000,0.000000
394-2415088-0,-0.000000,0.000000,-0.000000,-0.000000,0.000000,-0.000000
394-309427-0,0.000000,-0.000000,0.000000,-0.000000,-0.000000,-0.000000
394-309446-0,0.000000,0.000000,-0.000000,0.000000,0.000000,0.000000
394-325048-0,0.000000,-0.000000,-0.000000,0.000000,-0.000000,0.000000
394-813486-0,-0.000000,-0.000000,-0.000000,0.000000,0.000000,0.000000
401-113641-0,9.060882,-0.022851,-0.000000,-0.000000,-0.000000,-0.000000
401-113642-0,9.060882,-0.022851,0.000000,-0.000000,-0.000000,-0.000000
TIE-391-1110671,-0.000000,-0.000000,0.000000,-0.000000,0.000000,0.000000
TIE-391-191396,10.627621,-0.032025,-5.321913,-9.186353,-5.335157,9.265735
TIE-391-191399,10.627621,-0.032025,-5.321913,-9.186353,-5.335157,9.265735
UGSW-11201,-0.000000,-0.000000,-0.000000,-0.000000,0.000000,0.000000
UGSW-11205,-0.000000,-0.000000,0.000000,-0.000000,-0.000000,0.000000
UGSW-11206,0.000000,-0.000000,-0.000000,-0.000000,-0.000000,0.000000
UGSW-12481,-0.000000,-0.000000,-0.000000,-0.000000,0.000000,0.000000
UGSW-12483,-0.000000,-0.000000,0.000000,-0.000000,0.000000,-0.000000
UGSW-26897,0.000000,0.000000,0.000000,-0.000000,-0.000000,-0.000000
UGSW-3211,10.627621,-0.032025,-5.321913,-9.186353,-5.335157,9.265735
UGSW-3215,10.627621,-0.032025,-5.321913,-9.186353,-5.335157,9.265735
UGSW-3216,0.000000,-0.000000,0.000000,-0.000000,-0.000000,-0.000000
389-1191153-0,190.639099,-53.768062,-141.884057,-138.214271,-48.755041,191.982334
389-1402591-0,190.639099,-53.768062,-141.884057,-138.214271,-48.755041,191.982334
389-1443316-0,-0.000000,0.000000,0.000000,-0.000000,0.000000,-0.000000
389-1474387-0,190.241758,-90.927414,-173.866329,-119.290488,-16.375428,210.217902
389-1474387-1,0.000000,0.000000,-0.000000,-0.000000,-0.000000,-0.000000
389-1733268-0,0.000000,0.000000,0.000000,0.000000,0.000000,0.000000
389-1733270-0,0.397341,37.159352,31.982272,-18.923783,-32.379613,-18.235568
389-1733270-1,0.000000,0.000000,-0.000000,-0.000000,0.000000,-0.000000
389-2315678-0,-0.000000,0.000000,0.000000,0.000000,0.000000,0.000000
389-2315679-0,-0.000000,-0.000000,0.000000,0.000000,0.000000,0.000000
389-3027875-0,0.000000,0.000000,-0.000000,-0.000000,0.000000,-0.000000
389-3043684-0,190.639099,-53.768062,-141.884057,-138.214271,-48.755041,191.982334
389-3049333-0,190.639099,-53.768062,-141.884057,-138.214271,-48.755041,191.982334
389-3050614-0,190.639099,-53.768062,-141.884057,-138.214271,-48.755041,191.982334
389-3109249-0,190.639099,-53.768062,-141.884057,-138.214271,-48.755041,191.982334
389-730740-0,190.639099,-53.768062,-141.884057,-138.214271,-48.755041,191.982334
395-759507-0,0.000000,-0.000000,0.000000,-0.000000,-0.000000,0.000000
395-759513-0,-0.000000,-0.000000,0.000000,0.000000,0.000000,0.000000
395-759830-0,0.000000,0.000000,-0.000000,-0.000000,-0.000000,-0.000000
401-142442-0,190.639099,-53.768062,-141.884057,-138.214271,-48.755041,191.982334
401-142443-0,190.639099,-53.768062,-141.884057,-138.214271,-48.755041,191.982334
TIE-391-559608,0.000000,0.000000,-0.000000,-0.000000,-0.000000,-0.000000
TIE-391-559612,0.000000,0.000000,-0.000000,0.000000,-0.000000,-0.000000
TIE-391-559613,0.000000,0.000000,-0.000000,0.000000,-0.000000,-0.000000
TIE-391-559617,0.000000,0.000000,-0.000000,-0.000000,-0.000000,-0.000000
TIE-391-560880,0.000000,0.000000,-0.000000,-0.000000,-0.000000,-0.000000
TIE-391-560893,0.000000,-0.000000,-0.000000,-0.000000,-0.000000,0.000000
TIE-391-560896,-0.000000,0.000000,0.000000,0.000000,-0.000000,0.000000
UGSW-1293,0.000000,-0.000000,-0.000000,-0.000000,-0.000000,-0.000000
UGSW-1294,0.000000,-0.000000,-0.000000,-0.000000,-0.000000,-0.000000
UGSW-1295,0.000000,0.000000,-0.000000,-0.000000,-0.000000,-0.000000
UGSW-2565,-0.000000,-0.000000,-0.000000,0.000000,0.000000,-0.000000
UGSW-2566,0.000000,0.000000,-0.000000,0.000000,-0.000000,-0.000000
UGSW-2568,-0.000000,0.000000,0.000000,0.000000,-0.000000,0.000000
UGSW-2569,-0.000000,-0.000000,-0.000000,0.000000,0.000000,0.000000
UGSW-2570,0.000000,0.000000,-0.000000,-0.000000,-0.000000,-0.000000
UGSW-2574,0.000000,0.000000,-0.000000,-0.000000,-0.000000,-0.000000
UGSW-35521,-0.000000,0.000000,0.000000,0.000000,0.000000,0.000000
UGSW-35522,0.000000,0.000000,-0.000000,-0.000000,-0.000000,0.000000
UGSW-4812,0.000000,0.000000,-0.000000,-0.000000,-0.000000,-0.000000
UGSW-8007,0.000000,-0.000000,-0.000000,-0.000000,-0.000000,0.000000
UGSW-8008,0.000000,0.000000,-0.000000,-0.000000,-0.000000,0.000000
UGSW-8009,-0.000000,0.000000,0.000000,-0.000000,-0.000000,0.000000
UGSW-8011,-0.000000,-0.000000,0.000000,-0.000000,-0.000000,-0.000000
UGSW-8012,-0.000000,-0.000000,0.000000,-0.000000,-0.000000,0.000000
389-2584387-0,10.453557,-0.006550,-5.232252,-9.049647,-5.221079,9.056085
389-2584388-0,10.453557,-0.006550,-5.232252,-9.049647,-5.221079,9.056085
TIE-391-1323823,10.453557,-0.006550,-5.232252,-9.049647,-5.221079,9.056085
TIE-391-1323836,-0.000000,-0.000000,0.000000,-0.000000,0.000000,-0.000000
TIE-391-1324412,10.453557,-0.006550,-5.232252,-9.049647,-5.221079,9.056085
TIE-391-1332457,-0.000000,0.000000,-0.000000,0.000000,0.000000,-0.000000
TIE-391-1366997,10.453557,-0.006550,-5.232252,-9.049647,-5.221079,9.056085
TIE-391-1708485,10.453557,-0.006550,-5.232252,-9.049647,-5.221079,9.056085
TIE-391-670943,-0.000000,-0.000000,0.000000,-0.000000,0.000000,-0.000000
UGSW-19521,-0.000000,-0.000000,0.000000,-0.000000,0.000000,-0.000000
UGSW-19523,0.000000,0.000000,-0.000000,0.000000,0.000000,-0.000000
UGSW-19842,-0.000000,-0.000000,0.000000,-0.000000,0.000000,-0.000000
UGSW-20801,10.453557,-0.006550,-5.232252,-9.049647,-5.221079,9.056085
UGSW-20803,0.000000,-0.000000,-0.000000,0.000000,0.000000,0.000000
UGSW-22401,-0.000000,-0.000000,-0.000000,0.000000,0.000000,0.000000
UGSW-22402,-0.000000,-0.000000,-0.000000,0.000000,0.000000,0.000000
UGSW-22403,-0.000000,0.000000,-0.000000,0.000000,0.000000,0.000000
UGSW-23365,10.453557,-0.006550,-5.232252,-9.049647,-5.221079,9.056085
UGSW-2562,-0.000000,-0.000000,0.000000,-0.000000,0.000000,-0.000000
UGSW-2573,0.000000,-0.000000,-0.000000,0.000000,-0.000000,0.000000
UGSW-25921,10.453557,-0.006550,-5.232252,-9.049647,-5.221079,9.056085
UGSW-28161,-0.000000,-0.000000,-0.000000,-0.000000,0.000000,-0.000000
UGSW-34563,0.000000,0.000000,-0.000000,0.000000,-0.000000,0.000000
UGSW-34565,10.453557,-0.006550,-5.232252,-9.049647,-5.221079,9.056085
UGSW-6087,-0.000000,0.000000,-0.000000,0.000000,-0.000000,0.000000
Regulator_416-74596,119.115386,-1.470268,-60.830982,-102.421816,-58.284404,103.892084
Regulator_416-32980,289.292227,-15.866887,-158.392937,-242.604406,-130.915267,258.375597
Regulator_416-14448,78.585623,35.753732,-8.330067,-85.934480,-70.256090,50.183458
Regulator_416-32020,202.860248,-4.643043,-105.341056,-173.414353,-97.395306,177.885937
Regulator_416-69801,19.032661,23.284689,15.086141,-20.555685,-25.090347,-2.635047
Regulator_416-69802,189.455005,-53.434099,-141.002790,-137.355798,-48.452215,190.789897
Regulator_416-52180,10.261160,-0.006430,-5.135953,-8.883089,-5.124986,8.889408
Trafo_409-401940,121.348799,-1.497835,-61.971563,-104.342225,-59.377236,105.840060
Trafo_409-401941,289.292227,-15.866887,-158.392937,-242.604406,-130.915267,258.375597
Trafo_415-1194084,-0.000000,-0.000000,0.000000,0.000000,-0.000000,-0.000000
Trafo_415-340905,0.000000,-0.000000,-0.000000,0.000000,0.000000,0.000000
Trafo_415-340906,0.000000,-0.000000,-0.000000,0.000000,0.000000,0.000000
Trafo_415-341250,0.000000,-0.000000,0.000000,0.000000,0.000000,-0.000000
Trafo_SPU124_link,202.816167,-4.581092,-105.385136,-173.352402,-97.439386,177.947888
Trafo_SPU122_link,78.455034,-1.906692,-40.879653,-66.991179,-37.575917,68.900568
394-1053215,917.946590,-50.346859,0.000000,0.000000,0.000000,0.000000
394-1053216,0.000000,0.000000,-502.593029,-769.802526,0.000000,0.000000
394-1053217,0.000000,0.000000,0.000000,0.000000,-415.404257,819.845734
411-908050-0,917.946590,-50.346859,0.000000,0.000000,0.000000,0.000000
411-908053-0,0.000000,0.000000,-502.593029,-769.802526,0.000000,0.000000
411-908056-0,0.000000,0.000000,0.000000,0.000000,-415.404257,819.845734
394-806733,78.455034,-1.906692,0.000000,0.000000,0.000000,0.000000
394-806735,0.000000,0.000000,-40.879653,-66.991179,0.000000,0.000000
394-806737,0.000000,0.000000,0.000000,0.000000,-37.575917,68.900568
411-2150268-0,-0.000000,-0.000000,0.000000,0.000000,0.000000,0.000000
411-2150269-0,0.000000,0.000000,0.000000,-0.000000,0.000000,0.000000
411-2150270-0,0.000000,0.000000,0.000000,0.000000,-0.000000,0.000000
411-2162968-0,0.000000,0.000000,0.000000,0.000000,-37.575917,68.900568
411-2162969-0,0.000000,0.000000,-40.879653,-66.991179,0.000000,0.000000
411-2162970-0,78.455034,-1.906692,0.000000,0.000000,0.000000,0.000000
411-732691-0,78.455034,-1.906692,0.000000,0.000000,0.000000,0.000000
411-732695-0,0.000000,0.000000,0.000000,0.000000,-37.575917,68.900568
411-732698-0,0.000000,0.000000,-40.879653,-66.991179,0.000000,0.000000
A-395-1373643,78.455034,-1.906692,0.000000,0.000000,0.000000,0.000000
A-395-2135221,-0.000000,-0.000000,0.000000,0.000000,0.000000,0.000000
A-395-2135232,-0.000000,-0.000000,0.000000,0.000000,0.000000,0.000000
A-395-2147887,-0.000000,-0.000000,0.000000,0.000000,0.000000,0.000000
B-395-1373661,0.000000,0.000000,-40.879653,-66.991179,0.000000,0.000000
B-395-2135223,0.000000,0.000000,0.000000,0.000000,0.000000,0.000000
B-395-2135234,0.000000,0.000000,0.000000,-0.000000,0.000000,0.000000
B-395-2147889,0.000000,0.000000,-0.000000,0.000000,0.000000,0.000000
C-395-1373663,0.000000,0.000000,0.000000,0.000000,-37.575917,68.900568
C-395-2135225,0.000000,0.000000,0.000000,0.000000,-0.000000,-0.000000
C-395-2135236,0.000000,0.000000,0.000000,0.000000,-0.000000,0.000000
C-395-2147891,0.000000,0.000000,0.000000,0.000000,0.000000,0.000000
394-1666955-0,-0.000000,0.000000,0.000000,0.000000,0.000000,0.000000
394-1666957-0,0.000000,0.000000,0.000000,0.000000,0.000000,0.000000
394-1666959-0,0.000000,0.000000,0.000000,0.000000,-0.000000,-0.000000
394-2007026,202.860248,-4.643043,0.000000,0.000000,0.000000,0.000000
394-2007028,0.000000,0.000000,-105.341056,-173.414353,0.000000,0.000000
394-2007030,0.000000,0.000000,0.000000,0.000000,-97.395306,177.885937
394-2520034-0,0.000000,0.000000,0.000000,0.000000,0.000000,0.000000
394-2520036-0,0.000000,0.000000,0.000000,0.000000,0.000000,0.000000
394-2520038-0,0.000000,0.000000,0.000000,0.000000,0.000000,0.000000
394-2520051-0,0.044080,-0.061951,0.000000,0.000000,0.000000,0.000000
394-2520052-0,0.000000,0.000000,0.044080,-0.061951,0.000000,0.000000
394-2520053-0,0.000000,0.000000,0.000000,0.000000,0.044080,-0.061951
395-2147933-0,0.000000,-0.000000,0.000000,0.000000,0.000000,0.000000
395-2147934-0,0.000000,0.000000,0.000000,0.000000,0.000000,0.000000
395-2147935-0,0.000000,0.000000,0.000000,0.000000,0.000000,0.000000
411-1681315-0,202.860248,-4.643043,0.000000,0.000000,0.000000,0.000000
411-1681316-0,0.000000,0.000000,-105.341056,-173.414353,0.000000,0.000000
411-1681317-0,0.000000,0.000000,0.000000,0.000000,-97.395306,177.885937
411-2163008-0,0.000000,0.000000,0.000000,0.000000,0.000000,0.000000
411-2163010-0,0.000000,0.000000,-0.000000,0.000000,0.000000,0.000000
411-2163012-0,0.000000,0.000000,0.000000,0.000000,0.000000,-0.000000
394-1044247-0,-0.000000,0.000000,0.000000,0.000000,0.000000,0.000000
394-1044248-0,0.000000,0.000000,-0.000000,0.000000,0.000000,0.000000
394-1044249-0,0.000000,0.000000,0.000000,0.000000,0.000000,0.000000
394-1044256-0,-0.000000,0.000000,0.000000,0.000000,0.000000,0.000000
394-1044257-0,0.000000,0.000000,-0.000000,0.000000,0.000000,0.000000
394-1044258-0,0.000000,0.000000,0.000000,0.000000,0.000000,0.000000
394-1044264-0,-0.000000,0.000000,0.000000,0.000000,0.000000,0.000000
394-1044265-0,0.000000,0.000000,0.000000,0.000000,0.000000,0.000000
394-1044266-0,0.000000,0.000000,0.000000,0.000000,0.000000,0.000000
394-1044267-0,-0.000000,-0.000000,0.000000,0.000000,0.000000,0.000000
394-1044268-0,0.000000,0.000000,0.000000,0.000000,0.000000,0.000000
394-1044269-0,0.000000,0.000000,0.000000,0.000000,0.000000,-0.000000
394-1044273-0,-0.000000,-0.000000,0.000000,0.000000,0.000000,0.000000
394-1044274-0,0.000000,0.000000,0.000000,0.000000,0.000000,0.000000
394-1044275-0,0.000000,0.000000,0.000000,0.000000,0.000000,0.000000
394-1044281-0,-0.000000,-0.000000,0.000000,0.000000,0.000000,0.000000
394-1044282-0,0.000000,0.000000,-0.000000,-0.000000,0.000000,0.000000
394-1044283-0,0.000000,0.000000,0.000000,0.000000,0.000000,-0.000000
394-1044287-0,0.000000,-0.000000,0.000000,0.000000,0.000000,0.000000
394-1044288-0,0.000000,0.000000,0.000000,0.000000,0.000000,0.000000
394-1044289-0,0.000000,0.000000,0.000000,0.000000,-0.000000,0.000000
394-1051927-0,0.000000,0.000000,0.000000,0.000000,0.000000,0.000000
394-1051931-0,0.000000,0.000000,0.000000,0.000000,0.000000,0.000000
394-1095798-0,-0.000000,0.000000,0.000000,0.000000,0.000000,0.000000
394-1095800-0,0.000000,0.000000,0.000000,0.000000,0.000000,0.000000
394-1095802-0,0.000000,0.000000,0.000000,0.000000,0.000000,0.000000
394-1095807-0,0.000000,0.000000,0.000000,0.000000,0.000000,0.000000
394-1095808-0,-0.000000,0.000000,0.000000,0.000000,0.000000,0.000000
394-1095809-0,0.000000,0.000000,-0.000000,0.000000,0.000000,0.000000
394-1095810-0,0.000000,0.000000,0.000000,0.000000,-0.000000,-0.000000
394-1095814-0,0.000000,0.000000,0.000000,0.000000,0.000000,0.000000
394-1095816-0,0.000000,0.000000,0.000000,0.000000,0.000000,0.000000
394-1095834-0,0.000000,0.000000,0.000000,0.000000,0.000000,0.000000
394-1096400-0,-0.000000,-0.000000,0.000000,0.000000,0.000000,0.000000
394-1096402-0,0.000000,0.000000,0.000000,0.000000,0.000000,0.000000
394-1096404-0,0.000000,0.000000,0.000000,0.000000,0.000000,0.000000
394-1224088-0,0.000000,0.000000,0.000000,0.000000,0.000000,0.000000
394-1224089-0,0.000000,0.000000,-0.000000,0.000000,0.000000,0.000000
394-1224714-0,0.000000,0.000000,0.000000,0.000000,-0.000000,-0.000000
394-1224721-0,0.000000,0.000000,0.000000,0.000000,0.000000,0.000000
394-1400714-0,0.000000,0.000000,0.000000,0.000000,0.000000,-0.000000
394-1400716-0,0.000000,0.000000,0.000000,0.000000,0.000000,0.000000
394-1400719-0,-0.000000,-0.000000,0.000000,0.000000,0.000000,0.000000
394-1491930-0,-0.000000,0.000000,0.000000,0.000000,0.000000,0.000000
394-1491931-0,0.000000,0.000000,0.000000,0.000000,0.000000,0.000000
394-1491932-0,0.000000,0.000000,0.000000,0.000000,0.000000,0.000000
394-1582480-0,-0.000000,-0.000000,0.000000,0.000000,0.000000,0.000000
394-1582483-0,-0.000000,-0.000000,0.000000,0.000000,0.000000,0.000000
394-1582484-0,-0.000000,-0.000000,0.000000,0.000000,0.000000,0.000000
394-1582488-0,0.000000,0.000000,0.000000,0.000000,0.000000,0.000000
394-1595301-0,0.000000,0.000000,0.000000,0.000000,0.000000,0.000000
394-1605837-0,0.000000,0.000000,0.000000,0.000000,0.000000,0.000000
394-1613943,0.000000,-0.000000,0.000000,0.000000,0.000000,0.000000
394-1613945,0.000000,0.000000,0.000000,0.000000,0.000000,-0.000000
394-1613947,0.000000,0.000000,0.000000,0.000000,0.000000,0.000000
394-1613957-0,0.000000,0.000000,-0.000000,0.000000,0.000000,0.000000
394-1613964-0,0.000000,-0.000000,0.000000,0.000000,0.000000,0.000000
394-1613967-0,0.000000,0.000000,0.000000,0.000000,0.000000,0.000000
394-1613968-0,0.000000,-0.000000,0.000000,0.000000,0.000000,0.000000
394-1613986-0,0.000000,0.000000,0.000000,0.000000,0.000000,0.000000
394-1613988-0,0.000000,0.000000,0.000000,0.000000,-0.000000,-0.000000
394-1613990-0,0.000000,0.000000,0.000000,0.000000,0.000000,0.000000
394-1613994-0,0.000000,-0.000000,0.000000,0.000000,0.000000,0.000000
394-1613995-0,0.000000,0.000000,0.000000,0.000000,0.000000,0.000000
394-1613996-0,0.000000,0.000000,0.000000,0.000000,-0.000000,0.000000
394-1613997-0,0.000000,0.000000,0.000000,0.000000,0.000000,0.000000
394-1613998-0,0.000000,0.000000,-0.000000,0.000000,0.000000,0.000000
394-1613999-0,0.000000,0.000000,0.000000,0.000000,0.000000,0.000000
394-1614003-0,0.000000,0.000000,0.000000,0.000000,-0.000000,0.000000
394-1614154-0,0.000000,-0.000000,0.000000,0.000000,0.000000,0.000000
394-1614156-0,0.000000,0.000000,0.000000,0.000000,-0.000000,0.000000
394-1614158-0,0.000000,0.000000,0.000000,0.000000,0.000000,0.000000
394-1614161-0,0.000000,-0.000000,0.000000,0.000000,0.000000,0.000000
394-1614163-0,0.000000,0.000000,0.000000,0.000000,-0.000000,0.000000
394-1614165-0,0.000000,0.000000,0.000000,0.000000,0.000000,0.000000
394-1614169-0,0.000000,-0.000000,0.000000,0.000000,0.000000,0.000000
394-1614171-0,0.000000,0.000000,0.000000,0.000000,-0.000000,0.000000
394-1614173-0,0.000000,0.000000,0.000000,0.000000,0.000000,0.000000
394-1614180-0,0.000000,0.000000,0.000000,0.000000,0.000000,0.000000
394-1650009-0,-0.000000,0.000000,0.000000,0.000000,0.000000,0.000000
394-1650317-0,0.000000,0.000000,0.000000,0.000000,0.000000,0.000000
394-1650318-0,0.000000,0.000000,0.000000,0.000000,0.000000,0.000000
394-1650322-0,0.000000,0.000000,0.000000,0.000000,0.000000,0.000000
394-1650323-0,0.000000,0.000000,0.000000,0.000000,0.000000,0.000000
394-1650324-0,0.000000,0.000000,0.000000,0.000000,0.000000,0.000000
394-1650379-0,-0.000000,-0.000000,0.000000,0.000000,0.000000,0.000000
394-1650381-0,0.000000,0.000000,0.000000,0.000000,0.000000,0.000000
394-1650383-0,0.000000,0.000000,0.000000,0.000000,0.000000,0.000000
394-1692250-0,0.000000,0.000000,0.000000,-0.000000,0.000000,0.000000
394-1692253-0,0.000000,0.000000,0.000000,-0.000000,0.000000,0.000000
394-1692254-0,0.000000,0.000000,0.000000,0.000000,0.000000,0.000000
394-1697704-0,0.000000,0.000000,0.000000,0.000000,0.000000,0.000000
394-1697705-0,0.000000,0.000000,0.000000,0.000000,0.000000,0.000000
394-1697708-0,0.000000,0.000000,0.000000,0.000000,0.000000,0.000000
394-1718506-0,0.000000,0.000000,0.000000,-0.000000,0.000000,0.000000
394-1771518-0,-0.000000,-0.000000,0.000000,0.000000,0.000000,0.000000
394-1771520-0,0.000000,0.000000,0.000000,-0.000000,0.000000,0.000000
394-1771522-0,0.000000,0.000000,0.000000,0.000000,0.000000,0.000000
394-1771524-0,-0.000000,-0.000000,0.000000,0.000000,0.000000,0.000000
394-1771526-0,0.000000,0.000000,0.000000,-0.000000,0.000000,0.000000
394-1771528-0,0.000000,0.000000,0.000000,0.000000,0.000000,0.000000
394-1771530-0,-0.000000,-0.000000,0.000000,0.000000,0.000000,0.000000
394-1771532-0,0.000000,0.000000,0.000000,-0.000000,0.000000,0.000000
394-1771534-0,0.000000,0.000000,0.000000,0.000000,0.000000,0.000000
394-1771536-0,-0.000000,-0.000000,0.000000,0.000000,0.000000,0.000000
394-1771538-0,0.000000,0.000000,0.000000,-0.000000,0.000000,0.000000
394-1771540-0,0.000000,0.000000,0.000000,0.000000,0.000000,0.000000
394-1771542-0,-0.000000,-0.000000,0.000000,0.000000,0.000000,0.000000
394-1771544-0,0.000000,0.000000,0.000000,-0.000000,0.000000,0.000000
394-1771546-0,0.000000,0.000000,0.000000,0.000000,0.000000,0.000000
394-1853449-0,0.000000,0.000000,0.000000,0.000000,0.000000,0.000000
394-1853451-0,-0.000000,-0.000000,0.000000,0.000000,0.000000,0.000000
394-1853453-0,0.000000,0.000000,0.000000,-0.000000,0.000000,0.000000
394-1853466-0,-0.000000,0.000000,0.000000,0.000000,0.000000,0.000000
394-1853468-0,0.000000,0.000000,0.000000,0.000000,0.000000,0.000000
394-1853470-0,0.000000,0.000000,-0.000000,0.000000,0.000000,0.000000
394-1853478-0,-0.000000,0.000000,0.000000,0.000000,0.000000,0.000000
394-1853480-0,0.000000,0.000000,-0.000000,0.000000,0.000000,0.000000
394-1853482-0,0.000000,0.000000,0.000000,0.000000,0.000000,0.000000
394-1853485-0,-0.000000,-0.000000,0.000000,0.000000,0.000000,0.000000
394-1853487-0,0.000000,0.000000,0.000000,-0.000000,0.000000,0.000000
394-1853489-0,0.000000,0.000000,0.000000,0.000000,0.000000,0.000000
394-1859318-0,-0.000000,-0.000000,0.000000,0.000000,0.000000,0.000000
394-1859319-0,0.000000,0.000000,0.000000,0.000000,0.000000,0.000000
394-1859338-0,0.000000,0.000000,-0.000000,-0.000000,0.000000,0.000000
394-1936250-0,0.000000,0.000000,0.000000,0.000000,0.000000,0.000000
394-2207528-0,0.000000,0.000000,0.000000,0.000000,0.000000,0.000000
394-2207530-0,0.000000,0.000000,-0.000000,0.000000,0.000000,0.000000
394-2207532-0,0.000000,0.000000,0.000000,0.000000,0.000000,0.000000
394-2251562-0,-0.000000,-0.000000,0.000000,0.000000,0.000000,0.000000
394-2251564-0,0.000000,0.000000,0.000000,0.000000,-0.000000,0.000000
394-2251566-0,0.000000,0.000000,0.000000,0.000000,0.000000,0.000000
394-2336684-0,0.000000,-0.000000,0.000000,0.000000,0.000000,0.000000
394-2352418,0.000000,0.000000,0.000000,0.000000,0.000000,0.000000
394-2352419,0.000000,0.000000,-0.000000,-0.000000,0.000000,0.000000
394-2352420,0.000000,0.000000,0.000000,0.000000,0.000000,0.000000
394-2408251,10.627621,-0.032025,0.000000,0.000000,0.000000,0.000000
394-2408253,0.000000,0.000000,-5.321913,-9.186353,0.000000,0.000000
394-2408255,0.000000,0.000000,0.000000,0.000000,-5.335157,9.265735
394-2415067,-0.000000,-0.000000,0.000000,0.000000,0.000000,0.000000
394-2415076-0,0.000000,0.000000,0.000000,0.000000,0.000000,0.000000
394-2415079,0.000000,0.000000,0.000000,0.000000,0.000000,0.000000
394-2415081,0.000000,0.000000,0.000000,-0.000000,0.000000,0.000000
394-2415083,0.000000,0.000000,0.000000,0.000000,0.000000,0.000000
394-2415086,0.000000,0.000000,0.000000,0.000000,-0.000000,0.000000
394-2415089,0.000000,0.000000,0.000000,-0.000000,0.000000,0.000000
394-2439086-0,0.000000,0.000000,-0.000000,-0.000000,0.000000,0.000000
394-2439091-0,0.000000,0.000000,0.000000,-0.000000,0.000000,0.000000
394-2457674-0,0.000000,0.000000,0.000000,0.000000,0.000000,0.000000
394-2457675-0,0.000000,0.000000,-0.000000,0.000000,0.000000,0.000000
394-2457676-0,0.000000,0.000000,0.000000,0.000000,-0.000000,0.000000
394-2460858-0,0.000000,0.000000,0.000000,0.000000,0.000000,0.000000
394-2475226-0,-0.000000,-0.000000,0.000000,0.000000,0.000000,0.000000
394-2475227-0,0.000000,0.000000,0.000000,0.000000,0.000000,0.000000
394-2475228-0,0.000000,0.000000,0.000000,0.000000,0.000000,0.000000
394-2484894-0,-0.000000,0.000000,0.000000,0.000000,0.000000,0.000000
394-2484896-0,0.000000,0.000000,0.000000,0.000000,-0.000000,0.000000
394-2484898-0,0.000000,0.000000,0.000000,0.000000,0.000000,0.000000
394-2484900-0,0.000000,0.000000,0.000000,0.000000,0.000000,0.000000
394-2484902-0,0.000000,0.000000,0.000000,0.000000,0.000000,0.000000
394-2484904-0,0.000000,0.000000,0.000000,0.000000,0.000000,0.000000
394-2507050-0,0.000000,0.000000,0.000000,0.000000,0.000000,0.000000
394-2507052-0,0.000000,0.000000,0.000000,0.000000,0.000000,0.000000
394-2507054-0,0.000000,0.000000,0.000000,-0.000000,0.000000,0.000000
394-309414-0,0.000000,0.000000,0.000000,-0.000000,0.000000,0.000000
394-309418-0,0.000000,0.000000,-0.000000,-0.000000,0.000000,0.000000
394-309430,0.000000,0.000000,-0.000000,0.000000,0.000000,0.000000
394-309437,0.000000,-0.000000,0.000000,0.000000,0.000000,0.000000
394-309471,0.000000,0.000000,0.000000,-0.000000,0.000000,0.000000
394-309477,-0.000000,0.000000,0.000000,0.000000,0.000000,0.000000
394-309479,0.000000,0.000000,0.000000,0.000000,-0.000000,-0.000000
394-309490,0.000000,0.000000,0.000000,0.000000,0.000000,0.000000
394-309495,0.000000,0.000000,0.000000,0.000000,0.000000,0.000000
394-310942-0,0.000000,-0.000000,0.000000,0.000000,0.000000,0.000000
394-310944-0,0.000000,0.000000,0.000000,0.000000,0.000000,0.000000
394-310948-0,0.000000,0.000000,0.000000,0.000000,-0.000000,-0.000000
394-311266-0,0.000000,0.000000,0.000000,0.000000,-0.000000,0.000000
394-311268-0,0.000000,0.000000,-0.000000,-0.000000,0.000000,0.000000
394-311270-0,0.000000,0.000000,0.000000,0.000000,0.000000,0.000000
...
A-395-1456560,0.000000,0.000000,0.000000,0.000000,0.000000,0.000000
A-395-1456879,-0.000000,-0.000000,0.000000,0.000000,0.000000,0.000000
A-395-1525090,-0.000000,-0.000000,0.000000,0.000000,0.000000,0.000000
A-395-1525096,0.000000,0.000000,0.000000,0.000000,0.000000,0.000000
A-395-1800908,0.000000,0.000000,0.000000,0.000000,0.000000,0.000000
A-395-277258,0.000000,-0.000000,0.000000,0.000000,0.000000,0.000000
A-395-277272,10.627621,-0.032025,0.000000,0.000000,0.000000,0.000000
A-395-277278,10.627621,-0.032025,0.000000,0.000000,0.000000,0.000000
A-395-926291,0.000000,-0.000000,0.000000,0.000000,0.000000,0.000000
B-395-1456561,0.000000,0.000000,-0.000000,0.000000,0.000000,0.000000
B-395-1456881,0.000000,0.000000,0.000000,-0.000000,0.000000,0.000000
B-395-1525092,0.000000,0.000000,0.000000,0.000000,0.000000,0.000000
B-395-1525098,0.000000,0.000000,0.000000,0.000000,0.000000,0.000000
B-395-1800910,0.000000,0.000000,0.000000,0.000000,0.000000,0.000000
B-395-277251,0.000000,0.000000,-5.321913,-9.186353,0.000000,0.000000
B-395-277275,0.000000,0.000000,-5.321913,-9.186353,0.000000,0.000000
B-395-277286,0.000000,0.000000,0.000000,-0.000000,0.000000,0.000000
B-395-926293,0.000000,0.000000,-0.000000,0.000000,0.000000,0.000000
C-395-1456562,0.000000,0.000000,0.000000,0.000000,0.000000,0.000000
C-395-1456883,0.000000,0.000000,0.000000,0.000000,0.000000,0.000000
C-395-1525094,0.000000,0.000000,0.000000,0.000000,-0.000000,0.000000
C-395-1525100,0.000000,0.000000,0.000000,0.000000,0.000000,0.000000
C-395-277262,0.000000,0.000000,0.000000,0.000000,-5.335157,9.265735
C-395-277266,0.000000,0.000000,0.000000,0.000000,-0.000000,-0.000000
C-395-277281,0.000000,0.000000,0.000000,0.000000,-5.335157,9.265735
C-395-926295,0.000000,0.000000,0.000000,0.000000,0.000000,0.000000
C-395-926297,0.000000,0.000000,0.000000,0.000000,0.000000,0.000000
389-3050623-0,190.639099,-53.768062,-141.884057,-138.214271,-48.755041,191.982334
389-3107585-0,190.639099,-53.768062,-141.884057,-138.214271,-48.755041,191.982334
394-1023108-0,0.000000,0.000000,0.000000,0.000000,0.000000,0.000000
394-1023109-0,0.000000,0.000000,-0.000000,-0.000000,0.000000,0.000000
394-1023110-0,0.000000,0.000000,0.000000,0.000000,-0.000000,-0.000000
394-1027858-0,0.000000,0.000000,0.000000,0.000000,0.000000,0.000000
394-1027860-0,0.000000,0.000000,0.000000,0.000000,0.000000,0.000000
394-1027862-0,0.000000,0.000000,0.000000,0.000000,0.000000,0.000000
394-1031406,0.000000,0.000000,0.000000,0.000000,0.000000,0.000000
394-1031408,0.000000,0.000000,-0.000000,-0.000000,0.000000,0.000000
394-1031410,0.000000,0.000000,0.000000,0.000000,-0.000000,-0.000000
394-1906874-0,-0.000000,-0.000000,0.000000,0.000000,0.000000,0.000000
394-1906875-0,0.000000,0.000000,0.000000,0.000000,0.000000,0.000000
394-1906876-0,0.000000,0.000000,0.000000,0.000000,0.000000,0.000000
394-1906877-0,0.000000,-0.000000,0.000000,0.000000,0.000000,0.000000
394-1906878-0,0.000000,0.000000,0.000000,0.000000,0.000000,0.000000
394-1906879-0,0.000000,0.000000,0.000000,0.000000,0.000000,0.000000
394-2007069-0,0.000000,0.000000,0.000000,0.000000,0.000000,0.000000
394-2007070-0,0.000000,0.000000,0.000000,0.000000,0.000000,0.000000
394-2007071-0,0.000000,0.000000,0.000000,0.000000,0.000000,0.000000
394-2007075-0,0.000000,0.000000,0.000000,0.000000,0.000000,0.000000
394-2007076-0,0.000000,0.000000,0.000000,0.000000,0.000000,0.000000
394-2007077-0,0.000000,0.000000,0.000000,0.000000,0.000000,0.000000
394-2500292-0,-0.000000,-0.000000,0.000000,0.000000,0.000000,0.000000
394-2500293-0,0.000000,0.000000,0.000000,0.000000,0.000000,0.000000
394-2500294-0,0.000000,0.000000,0.000000,0.000000,-0.000000,-0.000000
394-2500330-0,0.000000,-0.000000,0.000000,0.000000,0.000000,0.000000
394-2500332-0,0.000000,0.000000,0.000000,0.000000,0.000000,0.000000
394-2500334-0,0.000000,0.000000,0.000000,0.000000,0.000000,0.000000
394-2500336-0,-0.000000,-0.000000,0.000000,0.000000,0.000000,0.000000
394-2500338-0,0.000000,0.000000,0.000000,0.000000,0.000000,0.000000
394-2500340-0,0.000000,0.000000,0.000000,0.000000,0.000000,0.000000
394-2500342-0,0.000000,0.000000,0.000000,0.000000,0.000000,0.000000
394-2505993-0,-0.000000,-0.000000,0.000000,0.000000,0.000000,0.000000
394-2505995-0,0.000000,0.000000,0.000000,0.000000,0.000000,0.000000
394-2505997-0,0.000000,0.000000,0.000000,0.000000,-0.000000,-0.000000
394-858328-0,0.000000,-0.000000,0.000000,0.000000,0.000000,0.000000
394-858353-0,0.000000,-0.000000,0.000000,0.000000,0.000000,0.000000
394-858355-0,0.000000,0.000000,0.000000,0.000000,0.000000,0.000000
394-858357-0,0.000000,0.000000,-0.000000,-0.000000,0.000000,0.000000
394-858369-0,0.000000,0.000000,0.000000,0.000000,0.000000,0.000000
394-858371-0,0.000000,0.000000,-0.000000,-0.000000,0.000000,0.000000
394-858373-0,0.000000,0.000000,0.000000,0.000000,0.000000,0.000000
394-858375-0,-0.000000,-0.000000,0.000000,0.000000,0.000000,0.000000
394-858376-0,0.000000,0.000000,0.000000,0.000000,0.000000,0.000000
394-858377-0,0.000000,0.000000,-0.000000,-0.000000,0.000000,0.000000
394-858378-0,0.000000,0.000000,0.000000,0.000000,0.000000,0.000000
394-858379-0,0.000000,0.000000,0.000000,0.000000,0.000000,-0.000000
394-858380-0,0.000000,0.000000,0.000000,0.000000,0.000000,0.000000
394-858387-0,-0.000000,-0.000000,0.000000,0.000000,0.000000,0.000000
394-858389-0,0.000000,0.000000,-0.000000,0.000000,0.000000,0.000000
394-858391-0,0.000000,0.000000,0.000000,0.000000,-0.000000,-0.000000
394-858393-0,0.000000,-0.000000,0.000000,0.000000,0.000000,0.000000
394-858394-0,0.000000,0.000000,0.000000,0.000000,0.000000,0.000000
394-858395-0,0.000000,0.000000,0.000000,0.000000,0.000000,-0.000000
394-858400-0,0.000000,-0.000000,0.000000,0.000000,0.000000,0.000000
394-858402-0,0.000000,0.000000,-0.000000,-0.000000,0.000000,0.000000
394-858404-0,0.000000,0.000000,0.000000,0.000000,-0.000000,-0.000000
394-858406-0,0.000000,-0.000000,0.000000,0.000000,0.000000,0.000000
394-858408-0,0.000000,0.000000,-0.000000,-0.000000,0.000000,0.000000
394-858410-0,0.000000,0.000000,0.000000,0.000000,-0.000000,-0.000000
394-858453-0,0.000000,0.000000,0.000000,0.000000,0.000000,0.000000
394-858454-0,-0.000000,0.000000,0.000000,0.000000,0.000000,0.000000
394-858455-0,0.000000,0.000000,0.000000,0.000000,0.000000,0.000000
394-858456-0,0.000000,0.000000,0.000000,0.000000,0.000000,-0.000000
394-858457-0,0.000000,0.000000,0.000000,0.000000,0.000000,0.000000
394-858458-0,0.000000,0.000000,0.000000,-0.000000,0.000000,0.000000
394-858498-0,-0.000000,0.000000,0.000000,0.000000,0.000000,0.000000
394-858499-0,0.000000,0.000000,0.000000,0.000000,0.000000,0.000000
394-858500-0,0.000000,0.000000,0.000000,0.000000,-0.000000,0.000000
394-858502-0,-0.000000,0.000000,0.000000,0.000000,0.000000,0.000000
394-858504-0,0.000000,0.000000,0.000000,0.000000,0.000000,0.000000
394-858506-0,0.000000,0.000000,0.000000,0.000000,-0.000000,0.000000
394-858559-0,0.000000,0.000000,0.000000,0.000000,0.000000,0.000000
394-858561-0,0.000000,0.000000,0.000000,0.000000,0.000000,0.000000
394-858563-0,0.000000,0.000000,0.000000,-0.000000,0.000000,0.000000
394-858572-0,-0.000000,0.000000,0.000000,0.000000,0.000000,0.000000
394-858574-0,0.000000,0.000000,0.000000,0.000000,0.000000,-0.000000
394-858576-0,0.000000,0.000000,0.000000,-0.000000,0.000000,0.000000
394-858584-0,0.000000,0.000000,0.000000,0.000000,0.000000,0.000000
394-858586-0,0.000000,0.000000,0.000000,0.000000,0.000000,0.000000
394-858588-0,0.000000,0.000000,0.000000,0.000000,0.000000,0.000000
394-858896-0,0.000000,0.000000,0.000000,0.000000,0.000000,0.000000
394-858898-0,0.000000,0.000000,0.000000,0.000000,0.000000,0.000000
394-858900-0,0.000000,0.000000,0.000000,0.000000,0.000000,0.000000
394-858908-0,0.000000,0.000000,0.000000,0.000000,0.000000,0.000000
394-858910-0,0.000000,0.000000,0.000000,0.000000,0.000000,0.000000
394-858912-0,0.000000,0.000000,0.000000,0.000000,0.000000,0.000000
394-858913-0,0.000000,0.000000,0.000000,0.000000,-0.000000,0.000000
394-858915-0,0.000000,0.000000,0.000000,-0.000000,0.000000,0.000000
394-859534-0,0.000000,-0.000000,0.000000,0.000000,0.000000,0.000000
394-859535-0,0.000000,0.000000,0.000000,0.000000,0.000000,0.000000
394-859536-0,0.000000,0.000000,0.000000,0.000000,0.000000,0.000000
394-859537-0,-0.000000,-0.000000,0.000000,0.000000,0.000000,0.000000
394-859538-0,0.000000,0.000000,0.000000,0.000000,0.000000,0.000000
394-859539-0,0.000000,0.000000,0.000000,0.000000,0.000000,0.000000
394-859543-0,0.000000,-0.000000,0.000000,0.000000,0.000000,0.000000
394-859544-0,0.000000,0.000000,0.000000,-0.000000,0.000000,0.000000
394-859545-0,0.000000,0.000000,0.000000,0.000000,0.000000,0.000000
394-859559-0,-0.000000,-0.000000,0.000000,0.000000,0.000000,0.000000
394-859560-0,0.000000,0.000000,0.000000,0.000000,0.000000,0.000000
394-859561-0,0.000000,0.000000,0.000000,0.000000,0.000000,0.000000
394-859563-0,0.000000,-0.000000,0.000000,0.000000,0.000000,0.000000
394-859565-0,0.000000,0.000000,0.000000,0.000000,0.000000,0.000000
394-859567-0,0.000000,0.000000,0.000000,0.000000,0.000000,-0.000000
394-859581-0,0.000000,0.000000,0.000000,0.000000,0.000000,0.000000
394-859582-0,0.000000,0.000000,0.000000,0.000000,0.000000,0.000000
394-859583-0,0.000000,0.000000,0.000000,0.000000,0.000000,0.000000
394-859590-0,0.000000,0.000000,0.000000,0.000000,0.000000,0.000000
394-859591-0,0.000000,0.000000,0.000000,0.000000,0.000000,0.000000
394-859592-0,0.000000,0.000000,0.000000,0.000000,0.000000,0.000000
394-859596-0,-0.000000,-0.000000,0.000000,0.000000,0.000000,0.000000
394-859597-0,0.000000,0.000000,0.000000,-0.000000,0.000000,0.000000
394-859598-0,0.000000,0.000000,0.000000,0.000000,0.000000,0.000000
394-859602-0,0.000000,0.000000,0.000000,0.000000,0.000000,0.000000
394-859603-0,0.000000,0.000000,0.000000,0.000000,0.000000,0.000000
394-859604-0,0.000000,0.000000,0.000000,0.000000,0.000000,0.000000
394-859605-0,-0.000000,-0.000000,0.000000,0.000000,0.000000,0.000000
394-859606-0,0.000000,0.000000,0.000000,0.000000,0.000000,0.000000
394-859607-0,0.000000,0.000000,0.000000,0.000000,0.000000,0.000000
394-859663-0,0.000000,0.000000,0.000000,0.000000,0.000000,0.000000
394-859664-0,0.000000,0.000000,-0.000000,0.000000,0.000000,0.000000
394-859665-0,0.000000,0.000000,0.000000,0.000000,0.000000,0.000000
394-859669-0,0.000000,0.000000,0.000000,0.000000,0.000000,0.000000
394-859670-0,0.000000,0.000000,0.000000,0.000000,0.000000,0.000000
394-859671-0,0.000000,0.000000,0.000000,0.000000,0.000000,0.000000
411-1175269-0,-0.000000,0.000000,0.000000,0.000000,0.000000,0.000000
411-1175274-0,0.000000,0.000000,-0.000000,-0.000000,0.000000,0.000000
411-1175278-0,0.000000,0.000000,0.000000,0.000000,-0.000000,-0.000000
411-2150259-0,0.000000,0.000000,0.000000,0.000000,0.000000,0.000000
411-2150260-0,0.000000,0.000000,-0.000000,-0.000000,0.000000,0.000000
411-2150261-0,0.000000,0.000000,0.000000,0.000000,0.000000,-0.000000
411-2150262-0,0.000000,0.000000,0.000000,0.000000,0.000000,0.000000
411-2150263-0,0.000000,0.000000,-0.000000,-0.000000,0.000000,0.000000
411-2150264-0,0.000000,0.000000,0.000000,0.000000,0.000000,0.000000
411-732703-0,0.000000,0.000000,0.000000,0.000000,0.000000,0.000000
411-732944-0,0.000000,0.000000,-0.000000,-0.000000,0.000000,0.000000
411-732945-0,0.000000,0.000000,0.000000,0.000000,-0.000000,-0.000000
411-732946-0,0.000000,0.000000,0.000000,0.000000,0.000000,0.000000
411-732947-0,0.000000,0.000000,-0.000000,-0.000000,0.000000,0.000000
411-732948-0,0.000000,0.000000,0.000000,0.000000,-0.000000,-0.000000
411-732949-0,0.000000,0.000000,0.000000,0.000000,0.000000,0.000000
411-732950-0,0.000000,0.000000,-0.000000,0.000000,0.000000,0.000000
411-732951-0,0.000000,0.000000,0.000000,0.000000,-0.000000,-0.000000
411-732952-0,0.000000,-0.000000,0.000000,0.000000,0.000000,0.000000
411-732953-0,0.000000,0.000000,-0.000000,-0.000000,0.000000,0.000000
411-732954-0,0.000000,0.000000,0.000000,0.000000,0.000000,0.000000
411-733588-0,0.000000,0.000000,0.000000,0.000000,0.000000,0.000000
411-733589-0,0.000000,0.000000,-0.000000,-0.000000,0.000000,0.000000
411-733590-0,0.000000,0.000000,0.000000,0.000000,-0.000000,-0.000000
411-734256-0,0.000000,-0.000000,0.000000,0.000000,0.000000,0.000000
411-734257-0,0.000000,0.000000,-0.000000,-0.000000,0.000000,0.000000
411-734258-0,0.000000,0.000000,0.000000,0.000000,-0.000000,-0.000000
411-734259-0,0.000000,-0.000000,0.000000,0.000000,0.000000,0.000000
411-734260-0,0.000000,0.000000,0.000000,-0.000000,0.000000,0.000000
411-734261-0,0.000000,0.000000,0.000000,0.000000,-0.000000,0.000000
411-734277-0,0.000000,-0.000000,0.000000,0.000000,0.000000,0.000000
411-734278-0,0.000000,0.000000,-0.000000,-0.000000,0.000000,0.000000
411-734279-0,0.000000,0.000000,0.000000,0.000000,-0.000000,0.000000
411-734280-0,0.000000,0.000000,0.000000,0.000000,0.000000,0.000000
411-734281-0,0.000000,0.000000,0.000000,0.000000,0.000000,0.000000
411-734282-0,0.000000,0.000000,0.000000,0.000000,0.000000,0.000000
411-734292-0,-0.000000,0.000000,0.000000,0.000000,0.000000,0.000000
411-734293-0,0.000000,0.000000,0.000000,0.000000,0.000000,0.000000
411-734294-0,0.000000,0.000000,0.000000,0.000000,-0.000000,0.000000
411-734634-0,-0.000000,-0.000000,0.000000,0.000000,0.000000,0.000000
411-734635-0,0.000000,0.000000,0.000000,0.000000,0.000000,0.000000
411-734636-0,0.000000,0.000000,0.000000,0.000000,0.000000,0.000000
411-734880-0,-0.000000,-0.000000,0.000000,0.000000,0.000000,0.000000
411-734881-0,0.000000,0.000000,0.000000,0.000000,0.000000,0.000000
411-734882-0,0.000000,0.000000,0.000000,0.000000,0.000000,0.000000
411-734886-0,-0.000000,0.000000,0.000000,0.000000,0.000000,0.000000
411-734887-0,0.000000,0.000000,0.000000,0.000000,0.000000,0.000000
411-734888-0,0.000000,0.000000,0.000000,0.000000,0.000000,0.000000
411-887842-0,0.000000,0.000000,0.000000,0.000000,0.000000,0.000000
411-887843-0,0.000000,0.000000,-0.000000,-0.000000,0.000000,0.000000
411-887844-0,0.000000,0.000000,0.000000,0.000000,-0.000000,-0.000000
A-395-2135214,-0.000000,0.000000,0.000000,0.000000,0.000000,0.000000
A-395-2135220,0.000000,0.000000,0.000000,0.000000,0.000000,0.000000
A-395-757001,0.000000,0.000000,0.000000,0.000000,0.000000,0.000000
A-395-757247,0.000000,0.000000,0.000000,0.000000,0.000000,0.000000
A-395-757253,0.000000,0.000000,0.000000,0.000000,0.000000,0.000000
A-395-757258,0.000000,-0.000000,0.000000,0.000000,0.000000,0.000000
A-395-758542,0.000000,0.000000,0.000000,0.000000,0.000000,0.000000
A-395-758966,0.000000,0.000000,0.000000,0.000000,0.000000,0.000000
A-395-758971,-0.000000,-0.000000,0.000000,0.000000,0.000000,0.000000
A-395-758995,-0.000000,0.000000,0.000000,0.000000,0.000000,0.000000
A-395-759007,0.000000,-0.000000,0.000000,0.000000,0.000000,0.000000
A-395-759013,0.000000,0.000000,0.000000,0.000000,0.000000,0.000000
A-395-759014,-0.000000,-0.000000,0.000000,0.000000,0.000000,0.000000
A-395-759032,-0.000000,0.000000,0.000000,0.000000,0.000000,0.000000
A-395-759529,0.000000,-0.000000,0.000000,0.000000,0.000000,0.000000
A-395-759558,0.000000,-0.000000,0.000000,0.000000,0.000000,0.000000
A-395-759820,-0.000000,-0.000000,0.000000,0.000000,0.000000,0.000000
B-395-2135216,0.000000,0.000000,-0.000000,-0.000000,0.000000,0.000000
B-395-2135222,0.000000,0.000000,0.000000,0.000000,0.000000,0.000000
B-395-757003,0.000000,0.000000,-0.000000,-0.000000,0.000000,0.000000
B-395-757249,0.000000,0.000000,-0.000000,-0.000000,0.000000,0.000000
B-395-757255,0.000000,0.000000,-0.000000,0.000000,0.000000,0.000000
B-395-757260,0.000000,0.000000,-0.000000,-0.000000,0.000000,0.000000
B-395-758544,0.000000,0.000000,-0.000000,-0.000000,0.000000,0.000000
B-395-758968,0.000000,0.000000,-0.000000,-0.000000,0.000000,0.000000
B-395-758973,0.000000,0.000000,-0.000000,-0.000000,0.000000,0.000000
B-395-758997,0.000000,0.000000,-0.000000,-0.000000,0.000000,0.000000
B-395-759009,0.000000,0.000000,-0.000000,-0.000000,0.000000,0.000000
...